
**** 02/13/22 14:15:13 ******* PSpice Lite (March 2016) ******* ID# 10813 ****

 ** Profile: "SCHEMATIC1-Lab1"  [ c:\users\harry\desktop\spring 2022 csun\ece 443l\lab 1\lab 1-pspicefiles\schematic1\lab1.sim ] 


 ****     CIRCUIT DESCRIPTION


******************************************************************************




** Creating circuit file "Lab1.cir" 
** WARNING: THIS AUTOMATICALLY GENERATED FILE MAY BE OVERWRITTEN BY SUBSEQUENT SIMULATIONS

*Libraries: 
* Profile Libraries :
* Local Libraries :
.LIB "../../../lab 1-pspicefiles/lab 1.lib" 
* From [PSPICE NETLIST] section of C:\Users\Harry\AppData\Roaming\SPB_Data\cdssetup\OrCAD_PSpice\17.2.0\PSpice.ini file:
.lib "nomd.lib" 

*Analysis directives: 
.TRAN  0 30us 0 1ns 
.OPTIONS ADVCONV
.PROBE64 V(alias(*)) I(alias(*)) W(alias(*)) D(alias(*)) NOISE(alias(*)) 
.INC "..\SCHEMATIC1.net" 



**** INCLUDING SCHEMATIC1.net ****
* source LAB 1
M_M1         N00310 N00314 N00292 N00292 Mbreakp           
M_M2         N00310 N00314 0 0 Mbreakn           
V_V1         N00314 0  
+PULSE 5V 0V 0 .111us .111us .444us 1.11us
V_V2         N00292 0 5V

**** RESUMING Lab1.cir ****
.END

**** 02/13/22 14:15:13 ******* PSpice Lite (March 2016) ******* ID# 10813 ****

 ** Profile: "SCHEMATIC1-Lab1"  [ c:\users\harry\desktop\spring 2022 csun\ece 443l\lab 1\lab 1-pspicefiles\schematic1\lab1.sim ] 


 ****     MOSFET MODEL PARAMETERS


******************************************************************************




               Mbreakp         Mbreakn         
               PMOS            NMOS            
       LEVEL    1               1            
           L   10.000000E-06   10.000000E-06 
           W   60.000000E-06   30.000000E-06 
         VTO   -1.5             2            
          KP   55.000000E-06  111.000000E-06 
       GAMMA    0               0            
         PHI     .6              .6          
      LAMBDA     .04             .01         
          IS   16.640000E-12   16.640000E-12 
          JS    0               0            
          PB     .8              .8          
        PBSW     .8              .8          
         CBD    4.000000E-12    2.000000E-12 
         CBS    4.000000E-12    2.000000E-12 
          CJ    0               0            
        CJSW    0               0            
        CGSO  200.000000E-15  100.000000E-15 
        CGDO  200.000000E-15  100.000000E-15 
        CGBO    0               0            
         TOX    1.200000E-06    1.200000E-06 
          XJ    0               0            
       UCRIT   10.000000E+03   10.000000E+03 
      DIOMOD    1               1            
         VFB    0               0            
        LETA    0               0            
        WETA    0               0            
          U0    0               0            
        TEMP    0               0            
         VDD    5               5            
       XPART    0               0            


**** 02/13/22 14:15:13 ******* PSpice Lite (March 2016) ******* ID# 10813 ****

 ** Profile: "SCHEMATIC1-Lab1"  [ c:\users\harry\desktop\spring 2022 csun\ece 443l\lab 1\lab 1-pspicefiles\schematic1\lab1.sim ] 


 ****     INITIAL TRANSIENT SOLUTION       TEMPERATURE =   27.000 DEG C


******************************************************************************



 NODE   VOLTAGE     NODE   VOLTAGE     NODE   VOLTAGE     NODE   VOLTAGE


(N00292)    5.0000 (N00310) 21.66E-09 (N00314)    5.0000 




    VOLTAGE SOURCE CURRENTS
    NAME         CURRENT

    V_V1         0.000E+00
    V_V2        -2.164E-11

    TOTAL POWER DISSIPATION   1.08E-10  WATTS



          JOB CONCLUDED

**** 02/13/22 14:15:13 ******* PSpice Lite (March 2016) ******* ID# 10813 ****

 ** Profile: "SCHEMATIC1-Lab1"  [ c:\users\harry\desktop\spring 2022 csun\ece 443l\lab 1\lab 1-pspicefiles\schematic1\lab1.sim ] 


 ****     JOB STATISTICS SUMMARY


******************************************************************************



  License check-out time            =        8.17
  Total job time (using Solver 1)   =         .20
